$DATA1 SOURCE='HSPICE' VERSION='A-2007.09'
.TITLE '*****  session_1 *****'
 gain             temper           alter#            
  -21.1003          25.0000           1.0000         
